  
       XFOIL         Version 6.99
  
 Calculated polar for: FW-W3-211                                       
  
 1 1 Reynolds number fixed          Mach number fixed         
  
 xtrf =   1.000 (top)        1.000 (bottom)  
 Mach =   0.000     Re =     3.000 e 6     Ncrit =   9.000  9.000
  
   alpha    CL        CD       CDp       CM     Top_Xtr  Bot_Xtr  Top_Itr  Bot_Itr
  ------ -------- --------- --------- -------- -------- -------- -------- --------
  -6.000  -0.3732   0.00623  -0.00097  -0.0727   0.5241   0.3475  17.3494  57.6916
  -5.500  -0.3099   0.00605  -0.00098  -0.0743   0.5072   0.3731  17.8125  58.4352
  -5.000  -0.2461   0.00575  -0.00096  -0.0762   0.4988   0.4146  18.0433  59.6135
  -4.500  -0.1835   0.00571  -0.00089  -0.0774   0.4926   0.4258  18.2143  59.9313
  -4.000  -0.1213   0.00576  -0.00084  -0.0786   0.4809   0.4276  18.5376  59.9800
  -3.500  -0.0591   0.00583  -0.00078  -0.0798   0.4641   0.4288  19.0014  60.0148
  -3.000   0.0037   0.00576  -0.00077  -0.0811   0.4613   0.4397  19.0810  60.3173
  -2.500   0.0662   0.00574  -0.00074  -0.0824   0.4549   0.4485  19.2587  60.5625
  -2.000   0.1285   0.00580  -0.00068  -0.0836   0.4445   0.4555  19.5465  60.7578
  -1.500   0.1905   0.00588  -0.00061  -0.0848   0.4307   0.4596  19.9309  60.8709
  -1.000   0.2526   0.00591  -0.00056  -0.0859   0.4274   0.4621  20.0235  60.9420
  -0.500   0.3147   0.00595  -0.00052  -0.0870   0.4250   0.4634  20.0905  60.9765
   0.000   0.3766   0.00602  -0.00049  -0.0881   0.4195   0.4640  20.2458  60.9938
   0.500   0.4383   0.00613  -0.00045  -0.0892   0.4096   0.4671  20.5256  61.0792
   1.000   0.5001   0.00621  -0.00040  -0.0904   0.3976   0.4759  20.8627  61.3219
   1.500   0.5620   0.00626  -0.00036  -0.0916   0.3924   0.4836  21.0079  61.5323
   2.000   0.6239   0.00630  -0.00033  -0.0927   0.3913   0.4884  21.0410  61.6659
   2.500   0.6854   0.00636  -0.00031  -0.0938   0.3883   0.4923  21.1269  61.7736
   3.000   0.7467   0.00646  -0.00027  -0.0948   0.3832   0.4952  21.2736  61.8551
   3.500   0.8074   0.00664  -0.00022  -0.0958   0.3744   0.4973  21.5259  61.9128
   4.000   0.8680   0.00682  -0.00015  -0.0967   0.3633   0.4987  21.8431  61.9517
   4.500   0.9287   0.00696  -0.00010  -0.0977   0.3576   0.4997  22.0072  61.9782
   5.000   0.9895   0.00705  -0.00009  -0.0986   0.3565   0.5002  22.0401  61.9924
   5.500   1.0501   0.00716  -0.00008  -0.0995   0.3534   0.5009  22.1320  62.0117
   6.000   1.1100   0.00735  -0.00006  -0.1005   0.3424   0.5061  22.4560  62.1553
   6.500   1.1691   0.00764   0.00002  -0.1013   0.3237   0.5115  23.0029  62.3038
   7.000   1.2288   0.00780   0.00003  -0.1022   0.3168   0.5170  23.2108  62.4533
   7.500   1.2866   0.00821   0.00015  -0.1028   0.2977   0.5215  23.7911  62.5784
   8.000   1.3438   0.00863   0.00029  -0.1034   0.2766   0.5260  24.4426  62.7018
   8.500   1.3980   0.00937   0.00059  -0.1036   0.2427   0.5295  25.5239  62.7979
   9.000   1.4498   0.01031   0.00102  -0.1036   0.2048   0.5319  26.7973  62.8653
   9.500   1.5000   0.01131   0.00148  -0.1033   0.1684   0.5338  28.1047  62.9173
  10.000   1.5457   0.01261   0.00212  -0.1026   0.1317   0.5352  29.5560  62.9541
  10.500   1.5892   0.01392   0.00276  -0.1015   0.0991   0.5360  30.9853  62.9781
  11.000   1.6306   0.01519   0.00337  -0.1001   0.0774   0.5366  32.0652  62.9931
  11.500   1.6654   0.01669   0.00410  -0.0979   0.0578   0.5386  33.1693  63.0502
  12.000   1.6888   0.01828   0.00484  -0.0941   0.0446   0.5452  34.0084  63.2312
  12.500   1.7100   0.02017   0.00584  -0.0911   0.0405   0.5533  34.3050  63.4523
  13.000   1.7244   0.02328   0.00766  -0.0892   0.0339   0.5590  34.7899  63.6121
  13.500   1.7443   0.02638   0.00948  -0.0883   0.0306   0.5632  35.0469  63.7270
  14.000   1.7565   0.03040   0.01194  -0.0875   0.0286   0.5666  35.2193  63.8191
  14.500   1.7573   0.03550   0.01516  -0.0864   0.0259   0.5691  35.4662  63.8879
  15.000   1.7494   0.04170   0.01923  -0.0856   0.0230   0.5707  35.7261  63.9344
