  
       XFOIL         Version 6.99
  
 Calculated polar for: FW-W3-301                                       
  
 1 1 Reynolds number fixed          Mach number fixed         
  
 xtrf =   1.000 (top)        1.000 (bottom)  
 Mach =   0.000     Re =     3.000 e 6     Ncrit =   9.000  9.000
  
   alpha    CL        CD       CDp       CM     Top_Xtr  Bot_Xtr  Top_Itr  Bot_Itr
  ------ -------- --------- --------- -------- -------- -------- -------- --------
  -4.000  -0.1513   0.00885   0.00014  -0.0873   0.4250   0.3577  20.0925  57.9933
  -3.500  -0.0809   0.00877   0.00011  -0.0903   0.4146   0.3657  20.3845  58.2240
  -3.000  -0.0092   0.00866   0.00009  -0.0938   0.3971   0.3797  20.8791  58.6247
  -2.500   0.0607   0.00858   0.00008  -0.0966   0.3909   0.3872  21.0537  58.8414
  -2.000   0.1288   0.00859   0.00008  -0.0990   0.3837   0.3906  21.2627  58.9379
  -1.500   0.1960   0.00873   0.00012  -0.1012   0.3667   0.3921  21.7494  58.9812
  -1.000   0.2636   0.00878   0.00013  -0.1034   0.3571   0.3948  22.0248  59.0567
  -0.500   0.3328   0.00874   0.00009  -0.1060   0.3532   0.4067  22.1410  59.3925
   0.000   0.4013   0.00877   0.00010  -0.1086   0.3443   0.4160  22.4000  59.6539
   0.500   0.4686   0.00889   0.00014  -0.1108   0.3311   0.4222  22.7881  59.8303
   1.000   0.5354   0.00898   0.00016  -0.1127   0.3234   0.4256  23.0147  59.9260
   1.500   0.6018   0.00905   0.00016  -0.1146   0.3206   0.4274  23.0996  59.9762
   2.000   0.6676   0.00920   0.00018  -0.1164   0.3142   0.4282  23.2919  59.9984
   2.500   0.7338   0.00938   0.00021  -0.1183   0.3038   0.4359  23.6082  60.2125
   3.000   0.8002   0.00952   0.00025  -0.1203   0.2914   0.4463  23.9829  60.5008
   3.500   0.8668   0.00958   0.00025  -0.1223   0.2898   0.4540  24.0326  60.7148
   4.000   0.9323   0.00970   0.00027  -0.1240   0.2862   0.4597  24.1456  60.8752
   4.500   0.9965   0.00994   0.00032  -0.1254   0.2789   0.4623  24.3714  60.9468
   5.000   1.0599   0.01024   0.00039  -0.1268   0.2688   0.4635  24.6897  60.9801
   5.500   1.1232   0.01050   0.00046  -0.1281   0.2588   0.4641  25.0008  60.9972
   6.000   1.1878   0.01062   0.00045  -0.1296   0.2581   0.4704  25.0263  61.1694
   6.500   1.2521   0.01077   0.00045  -0.1310   0.2557   0.4811  25.1039  61.4658
   7.000   1.3150   0.01101   0.00050  -0.1323   0.2504   0.4893  25.2744  61.6924
   7.500   1.3759   0.01138   0.00059  -0.1332   0.2431   0.4943  25.5146  61.8296
   8.000   1.4362   0.01176   0.00069  -0.1340   0.2333   0.4973  25.8312  61.9141
   8.500   1.4964   0.01207   0.00075  -0.1347   0.2281   0.4990  26.0040  61.9609
   9.000   1.5571   0.01230   0.00074  -0.1354   0.2273   0.4999  26.0299  61.9866
   9.500   1.6168   0.01257   0.00075  -0.1360   0.2257   0.5016  26.0838  62.0317
  10.000   1.6755   0.01289   0.00077  -0.1365   0.2222   0.5101  26.2046  62.2647
  10.500   1.7296   0.01344   0.00088  -0.1364   0.2140   0.5184  26.4847  62.4919
  11.000   1.7819   0.01403   0.00102  -0.1358   0.2035   0.5244  26.8416  62.6592
  11.500   1.8346   0.01451   0.00108  -0.1353   0.1987   0.5292  27.0069  62.7902
  12.000   1.8869   0.01492   0.00109  -0.1347   0.1977   0.5326  27.0435  62.8848
  12.500   1.9344   0.01548   0.00112  -0.1334   0.1948   0.5347  27.1471  62.9428
  13.000   1.9717   0.01632   0.00124  -0.1304   0.1896   0.5360  27.3344  62.9785
  13.500   1.9875   0.01781   0.00162  -0.1243   0.1831   0.5366  27.5707  62.9951
  14.000   2.0121   0.01949   0.00214  -0.1205   0.1737   0.5403  27.9102  63.0956
  14.500   2.0446   0.02101   0.00259  -0.1183   0.1706   0.5479  28.0222  63.3055
  15.000   2.0764   0.02273   0.00312  -0.1163   0.1689   0.5552  28.0897  63.5063
  15.500   2.0973   0.02531   0.00407  -0.1138   0.1639   0.5604  28.2807  63.6496
  16.000   2.1028   0.02926   0.00576  -0.1109   0.1566   0.5643  28.5586  63.7581
  16.500   2.1114   0.03324   0.00746  -0.1087   0.1485   0.5675  28.8730  63.8457
